Circuit: * D:\Users\lucas\Desktop\IC ELETRONICOS\3E_JFET\FREQ\3E_FREQ_OFFSET_CORRENTE_20mA.asc

Direct Newton iteration for .op point succeeded.

Date: Sat Mar 14 02:57:26 2026
Total elapsed time: 0.098 seconds.

tnom = 27
temp = 27
method = trap
totiter = 16
traniter = 0
tranpoints = 0
accept = 0
rejected = 0
matrix size = 51
fillins = 48
solver = Normal
Matrix Compiler1:     344 opcodes
Matrix Compiler2: 5.32 KB object code size
