Circuit: * D:\Users\lucas\Desktop\IC ELETRONICOS\2E_JFET\2E_THD\2E_JFET_THD_COPIA_COM_VALORES.asc

Direct Newton iteration for .op point skipped.
Starting Gmin stepping
Gmin = 10
Gmin = 1.07374
Gmin = 0.115292
Gmin = 0.0123794
Gmin = 0.00132923
Gmin = 0.000142725
Gmin = 1.5325e-005
Gmin = 1.6455e-006
Gmin = 1.76685e-007
Gmin = 1.89714e-008
Gmin = 2.03704e-009
Gmin = 2.18725e-010
Gmin = 2.34854e-011
Gmin = 2.52173e-012
Gmin = 2.70769e-013
Gmin = 0
Gmin stepping succeeded in finding the operating point.

Changing Tseed to 7.69231e-011
Changing Tseed to 7.69231e-013
Heightened Def Con from 2.41972e-006 to 2.41972e-006

Date: Mon Mar 09 01:53:11 2026
Total elapsed time: 6.421 seconds.

tnom = 27
temp = 27
method = modified trap
totiter = 1916226
traniter = 1915850
tranpoints = 341812
accept = 256353
rejected = 85458
matrix size = 45
fillins = 40
solver = Normal
Matrix Compiler1:     289 opcodes  0.7/[0.3]/0.4
Matrix Compiler2: off  [0.4]/0.5/0.4

