Circuit: * D:\Users\lucas\Desktop\IC ELETRONICOS\3E_JFET\THD_AJUSTE_CORRENTE_20mA\3E_THD_OFFSET_CORRENTE_20mA.asc

Direct Newton iteration for .op point succeeded.

Date: Sun Mar 15 00:48:07 2026
Total elapsed time: 0.246 seconds.

tnom = 27
temp = 27
method = trap
totiter = 9
traniter = 0
tranpoints = 0
accept = 0
rejected = 0
matrix size = 51
fillins = 48
solver = Normal
Matrix Compiler1:     344 opcodes
Matrix Compiler2: 5.32 KB object code size
